/*--------------------------------*- C++ -*----------------------------------*\
| =========                 |                                                 |
| \\      /  F ield         | OpenFOAM: The Open Source CFD Toolbox           |
|  \\    /   O peration     | Version:  v1806                                 |
|   \\  /    A nd           | Web:      www.OpenFOAM.com                      |
|    \\/     M anipulation  |                                                 |
\*---------------------------------------------------------------------------*/
FoamFile
{
    version     2.0;
    format      ascii;
    class       dictionary;
    object      blockMeshDict;
}
// * * * * * * * * * * * * * * * * * * * * * * * * * * * * * * * * * * * * * //

scale   1;

// the updated blockMesh (openfoam.com) fails on some meshes with default options;
// it reports report inconsistent number of faces although the mesh is still OK.
// this happens where two 'wedge' blocks with different numbers of cells join in the same
// point/edge.
mergeType points;
checkFaceCorrespondence false;



vertices
(
    
    (0.02560000 0.00000000 0.00000000) // 0
    (0.00000000 0.02560000 0.00000000) // 1
    (-0.02560000 0.00000000 0.00000000) // 2
    (-0.00000000 -0.02560000 0.00000000) // 3
    (0.01920000 0.00000000 0.06000000) // 4
    (0.00000000 0.01920000 0.06000000) // 5
    (-0.01920000 0.00000000 0.06000000) // 6
    (-0.00000000 -0.01920000 0.06000000) // 7
    (0.04000000 0.00000000 0.00000000) // 8
    (0.00000000 0.04000000 0.00000000) // 9
    (0.03000000 0.00000000 0.06000000) // 10
    (0.00000000 0.03000000 0.06000000) // 11
    (-0.04000000 0.00000000 0.00000000) // 12
    (-0.03000000 0.00000000 0.06000000) // 13
    (-0.00000000 -0.04000000 0.00000000) // 14
    (-0.00000000 -0.03000000 0.06000000) // 15
    (0.01920000 0.00000000 0.36000000) // 16
    (0.00000000 0.01920000 0.36000000) // 17
    (-0.01920000 0.00000000 0.36000000) // 18
    (-0.00000000 -0.01920000 0.36000000) // 19
    (0.03000000 0.00000000 0.36000000) // 20
    (0.00000000 0.03000000 0.36000000) // 21
    (-0.03000000 0.00000000 0.36000000) // 22
    (-0.00000000 -0.03000000 0.36000000) // 23
    (0.02688000 0.00000000 0.51000000) // 24
    (0.00000000 0.02688000 0.51000000) // 25
    (-0.02688000 0.00000000 0.51000000) // 26
    (-0.00000000 -0.02688000 0.51000000) // 27
    (0.04200000 0.00000000 0.51000000) // 28
    (0.00000000 0.04200000 0.51000000) // 29
    (-0.04200000 0.00000000 0.51000000) // 30
    (-0.00000000 -0.04200000 0.51000000) // 31
    (0.00000000 0.06000000 0.51000000) // 32
    (0.00000000 0.07000000 0.36000000) // 33
    (-0.06000000 0.00000000 0.51000000) // 34
    (-0.07000000 0.00000000 0.36000000) // 35
    (0.00000000 -0.06000000 0.51000000) // 36
    (0.00000000 -0.07000000 0.36000000) // 37
    (0.06000000 -0.00000000 0.51000000) // 38
    (0.07000000 -0.00000000 0.36000000) // 39
    (0.02688000 0.00000000 0.61000000) // 40
    (0.00000000 0.02688000 0.61000000) // 41
    (-0.02688000 0.00000000 0.61000000) // 42
    (-0.00000000 -0.02688000 0.61000000) // 43
    (0.04200000 0.00000000 0.61000000) // 44
    (0.00000000 0.04200000 0.61000000) // 45
    (-0.04200000 0.00000000 0.61000000) // 46
    (-0.00000000 -0.04200000 0.61000000) // 47
    (0.00000000 0.06000000 0.61000000) // 48
    (-0.06000000 0.00000000 0.61000000) // 49
    (0.00000000 -0.06000000 0.61000000) // 50
    (0.06000000 -0.00000000 0.61000000) // 51
    (0.04928000 0.00000000 0.81000000) // 52
    (0.00000000 0.04928000 0.81000000) // 53
    (-0.04928000 0.00000000 0.81000000) // 54
    (-0.00000000 -0.04928000 0.81000000) // 55
    (0.07700000 0.00000000 0.81000000) // 56
    (0.00000000 0.07700000 0.81000000) // 57
    (-0.07700000 0.00000000 0.81000000) // 58
    (-0.00000000 -0.07700000 0.81000000) // 59
    (0.00000000 0.11000000 0.81000000) // 60
    (-0.11000000 0.00000000 0.81000000) // 61
    (0.00000000 -0.11000000 0.81000000) // 62
    (0.11000000 -0.00000000 0.81000000) // 63
    (0.04928000 0.00000000 1.68000000) // 64
    (0.00000000 0.04928000 1.68000000) // 65
    (-0.04928000 0.00000000 1.68000000) // 66
    (-0.00000000 -0.04928000 1.68000000) // 67
    (0.07700000 0.00000000 1.68000000) // 68
    (0.00000000 0.07700000 1.68000000) // 69
    (-0.07700000 0.00000000 1.68000000) // 70
    (-0.00000000 -0.07700000 1.68000000) // 71
    (0.00000000 0.11000000 1.68000000) // 72
    (-0.11000000 0.00000000 1.68000000) // 73
    (0.00000000 -0.11000000 1.68000000) // 74
    (0.11000000 -0.00000000 1.68000000) // 75
);

blocks
(
    
    hex  ( 0 1 2 3 4 5 6 7 )  (12 12 4)  simpleGrading (1 1 1) // 0 
    hex  ( 0 8 9 1 4 10 11 5 )  (7 12 4)  simpleGrading (1.0 1 1) // 1 
    hex  ( 1 9 12 2 5 11 13 6 )  (7 12 4)  simpleGrading (1.0 1 1) // 2 
    hex  ( 2 12 14 3 6 13 15 7 )  (7 12 4)  simpleGrading (1.0 1 1) // 3 
    hex  ( 3 14 8 0 7 15 10 4 )  (7 12 4)  simpleGrading (1.0 1 1) // 4 
    hex  ( 4 5 6 7 16 17 18 19 )  (12 12 37)  simpleGrading (1 1 0.25) // 5 
    hex  ( 4 10 11 5 16 20 21 17 )  (7 12 37)  simpleGrading (1.0 1 0.25) // 6 
    hex  ( 5 11 13 6 17 21 22 18 )  (7 12 37)  simpleGrading (1.0 1 0.25) // 7 
    hex  ( 6 13 15 7 18 22 23 19 )  (7 12 37)  simpleGrading (1.0 1 0.25) // 8 
    hex  ( 7 15 10 4 19 23 20 16 )  (7 12 37)  simpleGrading (1.0 1.0 0.25) // 9 
    hex  ( 16 17 18 19 24 25 26 27 )  (12 12 18)  simpleGrading (1 1 (
	(0.5 9 4.0)
	(0.5 9 0.25)
)) // 10 
    hex  ( 16 20 21 17 24 28 29 25 )  (7 12 18)  simpleGrading (1.0 1 (
	(0.5 9 4.0)
	(0.5 9 0.25)
)) // 11 
    hex  ( 17 21 22 18 25 29 30 26 )  (7 12 18)  simpleGrading (1.0 1 (
	(0.5 9 4.0)
	(0.5 9 0.25)
)) // 12 
    hex  ( 18 22 23 19 26 30 31 27 )  (7 12 18)  simpleGrading (1.0 1.0 (
	(0.5 9 4.0)
	(0.5 9 0.25)
)) // 13 
    hex  ( 19 23 20 16 27 31 28 24 )  (7 12 18)  simpleGrading (1.0 1.0 (
	(0.5 9 4.0)
	(0.5 9 0.25)
)) // 14 
    hex  ( 21 29 32 33 22 30 34 35 )  (18 6 12)  simpleGrading ((
	(0.5 9 4.0)
	(0.5 9 0.25)
) 1 1) // 15 
    hex  ( 22 30 34 35 23 31 36 37 )  (18 6 12)  simpleGrading ((
	(0.5 9 4.0)
	(0.5 9 0.25)
) 1 1.0) // 16 
    hex  ( 23 31 36 37 20 28 38 39 )  (18 6 12)  simpleGrading ((
	(0.5 9 4.0)
	(0.5 9 0.25)
) 1 1.0) // 17 
    hex  ( 20 28 38 39 21 29 32 33 )  (18 6 12)  simpleGrading ((
	(0.5 9 4.0)
	(0.5 9 0.25)
) 1 1) // 18 
    hex  ( 24 25 26 27 40 41 42 43 )  (12 12 12)  simpleGrading (1 1.0 4.0) // 19 
    hex  ( 24 28 29 25 40 44 45 41 )  (7 12 12)  simpleGrading (1.0 1 4.0) // 20 
    hex  ( 25 29 30 26 41 45 46 42 )  (7 12 12)  simpleGrading (1.0 1 4.0) // 21 
    hex  ( 26 30 31 27 42 46 47 43 )  (7 12 12)  simpleGrading (1.0 1.0 4.0) // 22 
    hex  ( 27 31 28 24 43 47 44 40 )  (7 12 12)  simpleGrading (1.0 1.0 4.0) // 23 
    hex  ( 29 45 48 32 30 46 49 34 )  (12 6 12)  simpleGrading (4.0 1 1) // 24 
    hex  ( 30 46 49 34 31 47 50 36 )  (12 6 12)  simpleGrading (4.0 1 1.0) // 25 
    hex  ( 31 47 50 36 28 44 51 38 )  (12 6 12)  simpleGrading (4.0 1 1.0) // 26 
    hex  ( 28 44 51 38 29 45 48 32 )  (12 6 12)  simpleGrading (4.0 1 1) // 27 
    hex  ( 40 41 42 43 52 53 54 55 )  (12 12 25)  simpleGrading (1.0 1.0 4.0) // 28 
    hex  ( 40 44 45 41 52 56 57 53 )  (7 12 25)  simpleGrading (1.0 1 4.0) // 29 
    hex  ( 41 45 46 42 53 57 58 54 )  (7 12 25)  simpleGrading (1.0 1.0 4.0) // 30 
    hex  ( 42 46 47 43 54 58 59 55 )  (7 12 25)  simpleGrading (1.0 1.0 4.0) // 31 
    hex  ( 43 47 44 40 55 59 56 52 )  (7 12 25)  simpleGrading (1.0 1.0 4.0) // 32 
    hex  ( 45 57 60 48 46 58 61 49 )  (25 6 12)  simpleGrading (4.0 1 1.0) // 33 
    hex  ( 46 58 61 49 47 59 62 50 )  (25 6 12)  simpleGrading (4.0 1 1.0) // 34 
    hex  ( 47 59 62 50 44 56 63 51 )  (25 6 12)  simpleGrading (4.0 1 1.0) // 35 
    hex  ( 44 56 63 51 45 57 60 48 )  (25 6 12)  simpleGrading (4.0 1 1) // 36 
    hex  ( 52 53 54 55 64 65 66 67 )  (12 12 66)  simpleGrading (1.0 1.0 1.3333333333333333) // 37 
    hex  ( 52 56 57 53 64 68 69 65 )  (7 12 66)  simpleGrading (1.0 1.0 1.3333333333333333) // 38 
    hex  ( 53 57 58 54 65 69 70 66 )  (7 12 66)  simpleGrading (1.0 1.0 1.3333333333333333) // 39 
    hex  ( 54 58 59 55 66 70 71 67 )  (7 12 66)  simpleGrading (1.0 1.0 1.3333333333333333) // 40 
    hex  ( 55 59 56 52 67 71 68 64 )  (7 12 66)  simpleGrading (1.0 1.0 1.3333333333333333) // 41 
    hex  ( 57 69 72 60 58 70 73 61 )  (66 6 12)  simpleGrading (1.3333333333333333 1 1.0) // 42 
    hex  ( 58 70 73 61 59 71 74 62 )  (66 6 12)  simpleGrading (1.3333333333333333 1 1.0) // 43 
    hex  ( 59 71 74 62 56 68 75 63 )  (66 6 12)  simpleGrading (1.3333333333333333 1 1.0) // 44 
    hex  ( 56 68 75 63 57 69 72 60 )  (66 6 12)  simpleGrading (1.3333333333333333 1 1.0) // 45 
);

edges
(
    
    arc 0 1 (0.01408000 0.01408000 0.00000000)
    arc 1 2 (-0.01408000 0.01408000 0.00000000)
    arc 2 3 (-0.01408000 -0.01408000 0.00000000)
    arc 3 0 (0.01408000 -0.01408000 0.00000000)
    arc 4 5 (0.01056000 0.01056000 0.06000000)
    arc 5 6 (-0.01056000 0.01056000 0.06000000)
    arc 6 7 (-0.01056000 -0.01056000 0.06000000)
    arc 7 4 (0.01056000 -0.01056000 0.06000000)
    arc 8 9 (0.02828427 0.02828427 0.00000000)
    arc 10 11 (0.02121320 0.02121320 0.06000000)
    arc 9 12 (-0.02828427 0.02828427 0.00000000)
    arc 11 13 (-0.02121320 0.02121320 0.06000000)
    arc 12 14 (-0.02828427 -0.02828427 0.00000000)
    arc 13 15 (-0.02121320 -0.02121320 0.06000000)
    arc 14 8 (0.02828427 -0.02828427 0.00000000)
    arc 15 10 (0.02121320 -0.02121320 0.06000000)
    arc 16 17 (0.01056000 0.01056000 0.36000000)
    arc 17 18 (-0.01056000 0.01056000 0.36000000)
    arc 18 19 (-0.01056000 -0.01056000 0.36000000)
    arc 19 16 (0.01056000 -0.01056000 0.36000000)
    arc 20 21 (0.02121320 0.02121320 0.36000000)
    arc 21 22 (-0.02121320 0.02121320 0.36000000)
    arc 22 23 (-0.02121320 -0.02121320 0.36000000)
    arc 23 20 (0.02121320 -0.02121320 0.36000000)
    arc 24 25 (0.01478400 0.01478400 0.51000000)
    arc 25 26 (-0.01478400 0.01478400 0.51000000)
    arc 26 27 (-0.01478400 -0.01478400 0.51000000)
    arc 27 24 (0.01478400 -0.01478400 0.51000000)
    arc 28 29 (0.02969848 0.02969848 0.51000000)
    arc 29 30 (-0.02969848 0.02969848 0.51000000)
    arc 30 31 (-0.02969848 -0.02969848 0.51000000)
    arc 31 28 (0.02969848 -0.02969848 0.51000000)
    arc 32 34 (-0.04242641 0.04242641 0.51000000)
    arc 33 35 (-0.04949747 0.04949747 0.36000000)
    arc 34 36 (-0.04242641 -0.04242641 0.51000000)
    arc 35 37 (-0.04949747 -0.04949747 0.36000000)
    arc 36 38 (0.04242641 -0.04242641 0.51000000)
    arc 37 39 (0.04949747 -0.04949747 0.36000000)
    arc 38 32 (0.04242641 0.04242641 0.51000000)
    arc 39 33 (0.04949747 0.04949747 0.36000000)
    arc 40 41 (0.01478400 0.01478400 0.61000000)
    arc 41 42 (-0.01478400 0.01478400 0.61000000)
    arc 42 43 (-0.01478400 -0.01478400 0.61000000)
    arc 43 40 (0.01478400 -0.01478400 0.61000000)
    arc 44 45 (0.02969848 0.02969848 0.61000000)
    arc 45 46 (-0.02969848 0.02969848 0.61000000)
    arc 46 47 (-0.02969848 -0.02969848 0.61000000)
    arc 47 44 (0.02969848 -0.02969848 0.61000000)
    arc 48 49 (-0.04242641 0.04242641 0.61000000)
    arc 49 50 (-0.04242641 -0.04242641 0.61000000)
    arc 50 51 (0.04242641 -0.04242641 0.61000000)
    arc 51 48 (0.04242641 0.04242641 0.61000000)
    arc 52 53 (0.02710400 0.02710400 0.81000000)
    arc 53 54 (-0.02710400 0.02710400 0.81000000)
    arc 54 55 (-0.02710400 -0.02710400 0.81000000)
    arc 55 52 (0.02710400 -0.02710400 0.81000000)
    arc 56 57 (0.05444722 0.05444722 0.81000000)
    arc 57 58 (-0.05444722 0.05444722 0.81000000)
    arc 58 59 (-0.05444722 -0.05444722 0.81000000)
    arc 59 56 (0.05444722 -0.05444722 0.81000000)
    arc 60 61 (-0.07778175 0.07778175 0.81000000)
    arc 61 62 (-0.07778175 -0.07778175 0.81000000)
    arc 62 63 (0.07778175 -0.07778175 0.81000000)
    arc 63 60 (0.07778175 0.07778175 0.81000000)
    arc 64 65 (0.02710400 0.02710400 1.68000000)
    arc 65 66 (-0.02710400 0.02710400 1.68000000)
    arc 66 67 (-0.02710400 -0.02710400 1.68000000)
    arc 67 64 (0.02710400 -0.02710400 1.68000000)
    arc 68 69 (0.05444722 0.05444722 1.68000000)
    arc 69 70 (-0.05444722 0.05444722 1.68000000)
    arc 70 71 (-0.05444722 -0.05444722 1.68000000)
    arc 71 68 (0.05444722 -0.05444722 1.68000000)
    arc 72 73 (-0.07778175 0.07778175 1.68000000)
    arc 73 74 (-0.07778175 -0.07778175 1.68000000)
    arc 74 75 (0.07778175 -0.07778175 1.68000000)
    arc 75 72 (0.07778175 0.07778175 1.68000000)
);

boundary
(
    outlet
    {
        type patch;
        faces
        (
            (64 65 66 67)
            (64 68 69 65)
            (65 69 70 66)
            (66 70 71 67)
            (67 71 68 64)
            (70 69 72 73)
            (71 70 73 74)
            (68 71 74 75)
            (69 68 75 72)
            
        );

    }

    inlet
    {
        type patch;
        faces
        (
            (0 1 2 3)
            (0 8 9 1)
            (1 9 12 2)
            (2 12 14 3)
            (3 14 8 0)
            
        );

    }

    wall
    {
        type patch;
        faces
        (
            (10 8 9 11)
            (11 9 12 13)
            (13 12 14 15)
            (15 14 8 10)
            (20 10 11 21)
            (21 11 13 22)
            (22 13 15 23)
            (23 15 10 20)
            (22 21 33 35)
            (35 34 32 33)
            (23 22 35 37)
            (37 36 34 35)
            (20 23 37 39)
            (39 38 36 37)
            (21 20 39 33)
            (33 32 38 39)
            (34 49 48 32)
            (36 50 49 34)
            (38 51 50 36)
            (32 48 51 38)
            (49 61 60 48)
            (50 62 61 49)
            (51 63 62 50)
            (48 60 63 51)
            (61 73 72 60)
            (62 74 73 61)
            (63 75 74 62)
            (60 72 75 63)
            
        );

    }
);

mergePatchPairs
();



faces
();


// ************************************************************************* //